version 2
2
9
.tran 10m 10{return}.kicad adjustpaths{return}.save all{return}.probe alli
3
1
V(/Vb)
 
1
V(/Vc)
 
1
V(/Ve)
 
1
.ac dec 10 100m 1T{return}.kicad adjustpaths{return}.save all{return}.probe alli
2
9
V(/Vout)
 
5
V(/Vout)
 
